23
	Energy:      52.0704336
C         -2.30441       -1.53155       -0.59937
N         -1.57670       -0.42806        0.04020
C         -0.24527       -0.32403       -0.57496
C          0.81847        0.44918        0.21426
C          0.90472        1.93894       -0.03435
O         -0.26216        2.46929       -0.78163
C         -2.28284        0.86527        0.11096
C         -3.80045        0.90457       -0.03583
O         -4.61018        0.00949        0.05403
C         -2.03369        1.57949        1.46726
H         -1.43037        1.85455       -0.56854
H         -4.14475        1.95415       -0.18140
H         -0.29619        0.09539       -1.59655
H          0.11865       -1.35045       -0.67623
H          1.81446        0.06695       -0.06238
H          0.73235        0.25831        1.29121
H          1.58369        2.48416        0.66006
H         -3.26380       -1.68421       -0.11487
H         -1.70691       -2.44339       -0.49358
H         -2.48506       -1.37384       -1.67798
H         -0.97884        1.81017        1.61224
H         -2.58226        2.52608        1.52665
H         -2.35721        0.93027        2.28360
