    6
 CASSCF000/6-31G**  ENERGY=-131.91395317
 N         -3.3753887612        1.6909309277        0.0314742357
 C         -2.2680596170        0.5893621874       -0.2763248385
 C         -3.6814790443        0.4818610883       -0.0556891738
 H         -1.5683901307        0.4000432352        0.5192269733
 H         -1.8637852698        0.6040366641       -1.2736353627
 H         -4.5538916770       -0.1362934928        0.0178041559
 6
 Step 8
  N -3.243091 0.697338 -0.392962
  C -1.897574 0.766689 -0.380532
  C -4.172557 0.315210 0.328255
  H -1.346768 0.457012 0.485717
  H -1.410653 1.192085 -1.232387
  H -5.233177 0.298493 0.172142
