 22
-495.840702 -495.852868 -495.850979
C 2.982354 -1.210447 -0.786149
C 1.975805 -0.078568 -0.597126
N 1.095650 -0.279233 0.429745
C 0.002267 0.579992 0.909097
C -1.296511 -0.239344 0.710571
N -2.163648 0.191919 -0.242855
C -3.385570 -0.521792 -0.573235
O 1.994318 0.908990 -1.322319
C 0.001916 2.010931 0.368424
O -1.467700 -1.254555 1.381053
H 2.917802 -1.564322 -1.819506
H 2.841423 -2.058964 -0.108966
H 3.989987 -0.807218 -0.642628
H 1.137417 -1.166073 0.914495
H 0.112587 0.634778 1.998944
H -1.932529 1.025002 -0.765127
H -3.383041 -0.840598 -1.622243
H -4.268644 0.103010 -0.395326
H -3.433201 -1.401711 0.069285
H -0.828055 2.556957 0.831447
H -0.082280 2.057721 -0.718646
H 0.933552 2.518284 0.628236

