   13
 CASSCF000/6-31G**  ENERGY=-230.91269210 s1min
C       -1.6737222528      0.1244421941     -0.0877903498                 
C       -0.4811809314     -0.5800655654      0.5574788224                 
H       -2.5845930237     -0.0770722304      0.4673489230                 
H       -1.8240331416     -0.2106830980     -1.1104245449                 
H       -1.1821291555      1.7571188415     -0.3717446888                 
C        0.8438333462     -0.4260973540     -0.2028581824                 
H       -0.3490026033     -0.2181512177      1.5739372866                 
H       -0.6983029502     -1.6427208308      0.6335535231                 
C        1.4056532911      0.9722786095     -0.2279512432                 
H        0.7243465589     -0.7825123244     -1.2264245111                 
H        1.5917528510     -1.0598815014      0.2637653283                 
O        0.7402116309      1.8567466121     -1.0299758608                 
H        2.4733923046      1.1019954753     -0.3266953335                 
