    6
 CASSCF000/6-31G**  ENERGY=-131.79400496
 N         -3.2735420215        0.6737630846       -0.3644081154
 C         -1.8807533663        0.7499510616       -0.3897001372
 C         -4.1784591803        0.1825579885        0.2425538514
 H         -1.2650347375        0.4503546130        0.4276179746
 H         -1.4339850050        1.1984273026       -1.2507570693
 H         -5.2792201894        0.3748865596        0.2975494858
