   12
 MULTI000/6-31G*  ENERGY=-230.60006289
 C          0.7036805631       -0.0952152795        1.2463899211
 C         -0.7295336938       -0.0362507053        1.2345796181
 C         -1.4332127513        0.0590036138       -0.0118078877
 C         -0.7036807362        0.0952153310       -1.2463892572
 C          0.7295335531        0.0362516247       -1.2345789130
 C          1.4332125906       -0.0590033386        0.0118085581
 H          1.2301372938       -0.1665640934        2.1788749397
 H         -1.2753466348       -0.0636083816        2.1582221023
 H         -2.5054746705        0.1031852335       -0.0206402303
 H         -1.2301374634        0.1665642273       -2.1788742713
 H          1.2753464402        0.0636080227       -2.1582214669
 H          2.5054744992       -0.1031852244        0.0206408870
 12
 Step 8
  C 0.699457 -0.194920 0.962563
  C -0.745661 -0.040706 1.152565
  C -1.481870 0.198132 -0.006670
  C -0.718235 0.088410 -1.169885
  C 0.721197 -0.095250 -0.966255
  C 1.420289 0.676650 0.048692
  H 1.238990 -0.901164 1.571426
  H -1.186777 -0.166409 2.123252
  H -2.538056 0.391661 -0.009119
  H -1.140498 0.065676 -2.156528
  H 1.278194 -0.728445 -1.636529
  H 2.495141 0.695950 0.064351
