   12
 MULTI000/6-31G*  ENERGY=-230.77577766 FC
 C          0.6850406177       -0.0923732619        1.2133694854
 C         -0.7102062640       -0.0355508581        1.2018413417
 C         -1.3952107611        0.0577334395       -0.0114793363
 C         -0.6850411560        0.0923725957       -1.2133686774
 C          0.7102064807        0.0355526403       -1.2018403968
 C          1.3952105993       -0.0577330598        0.0114796386
 H          1.2125792106       -0.1629723197        2.1477505229
 H         -1.2571424414       -0.0639384507        2.1272624570
 H         -2.4695610518        0.1029313378       -0.0202796504
 H         -1.2125794831        0.1629699805       -2.1477500008
 H          1.2571423619        0.0639402660       -2.1272616945
 H          2.4695608773       -0.1029312796        0.0202803105
 12
 Step 8
  C 0.699457 -0.194920 0.962563
  C -0.745661 -0.040706 1.152565
  C -1.481870 0.198132 -0.006670
  C -0.718235 0.088410 -1.169885
  C 0.721197 -0.095250 -0.966255
  C 1.420289 0.676650 0.048692
  H 1.238990 -0.901164 1.571426
  H -1.186777 -0.166409 2.123252
  H -2.538056 0.391661 -0.009119
  H -1.140498 0.065676 -2.156528
  H 1.278194 -0.728445 -1.636529
  H 2.495141 0.695950 0.064351
