   14
 MULTI000/6-31G*  ENERGY=-231.71856574 S1 min
 C         -2.5430069472       -0.7727160332        0.2550984570
 C         -1.8601998327        0.4739474270       -0.2131973835
 C         -2.6202700460        1.7357457623       -0.1040416696
 C         -4.0642496787        1.7014656062        0.1041043948
 C         -4.7636075387        0.4050245443        0.2131857491
 C         -4.0224159467       -0.8078302453       -0.2551280070
 H         -1.1380839906        0.3967343533       -1.0090189732
 H         -2.1183134304        2.6810425319       -0.1870984515
 H         -4.6104927912        2.6218790651        0.1871871410
 H         -5.4812724630        0.2936144648        1.0089809123
 H         -4.5093625809       -1.7154011986        0.0859739049
 H         -3.9999037430       -0.8465040519       -1.3414325126
 H         -2.0135476033       -1.6561558294       -0.0860160681
 H         -2.5636572775       -0.8124274866        1.3414025164
14
 Step 8
  C -2.456224 -0.541259 0.443655
  C -1.843900 0.571484 -0.255782
  C -2.626972 1.708536 -0.319976
  C -3.943848 1.583858 0.160369
  C -4.469742 0.264255 0.328849
  C -4.441146 -0.878676 -0.542173
  H -0.962382 0.417642 -0.850671
  H -2.239157 2.647067 -0.678963
  H -4.450299 2.406082 0.632709
  H -5.100565 0.121056 1.196417
  H -4.948616 -1.773278 -0.240812
  H -4.015786 -0.833530 -1.523757
  H -2.204346 -1.543858 0.145187
  H -2.605518 -0.446112 1.504954
