   22
 MULTI000/6-31G*  ENERGY=-385.71871751
 C         -5.4732907172        1.5899241730        0.0017057457
 C         -4.2919466604        2.2366066423        0.0068643184
 C         -2.9935509752        1.5731152273        0.0003845337
 C         -1.8073883267        2.2298543318        0.0055965546
 H         -6.4057169234        2.1235226974        0.0068047093
 H         -5.5290884481        0.5152815294       -0.0077213466
 H         -4.2845553621        3.3144592070        0.0163839064
 H         -2.9972208071        0.4948193170       -0.0091382886
 C         -0.5125337982        1.5740692146       -0.0008407392
 H         -1.8080977327        3.3083014079        0.0151053409
 C          0.6740195175        2.2335499573        0.0043472031
 H         -0.5108352228        0.4957364889       -0.0103506155
 C          1.9688705228        1.5777598595       -0.0021272692
 H          0.6723239384        3.3118827768        0.0138394627
 C          3.1550394228        2.2344891917        0.0029855624
 H          1.9695741312        0.4993122614       -0.0116259055
 C          4.4534257735        1.5709833057       -0.0035803346
 H          3.1587223105        3.3127853295        0.0124658446
 C          5.6347788100        2.2176494525        0.0014177698
 H          4.4460209002        0.4931299939       -0.0130461575
 H          5.6905940104        3.2922895292        0.0108912070
 H          6.5671956368        1.6840381060       -0.0038715018
